#TargetFrameworkVersion=v4.0:PlatformToolSet=v141:EnableManagedIncrementalBuild=false:VCToolArchitecture=Native32Bit:WindowsTargetPlatformVersion=10.0.17763.0
Debug|x64|D:\Repositories\NREL_Stay\OpenFAST35_2\TdynMPH\build_vc2017\|
