#TargetFrameworkVersion=v4.0:PlatformToolSet=v141:EnableManagedIncrementalBuild=false:VCToolArchitecture=Native32Bit:WindowsTargetPlatformVersion=10.0.17763.0
Release|x64|D:\Repositories\NREL_Stay\OpenFAST35\TdynMPH\build_vc2017\|
