#TargetFrameworkVersion=v4.0:PlatformToolSet=v141:EnableManagedIncrementalBuild=false:VCToolArchitecture=Native32Bit:WindowsTargetPlatformVersion=10.0.17763.0
Release|Win32|D:\Repositories\NREL_Stay\OpenFAST35\openfast\vs-build\FAST\|
